 &LAYERS_PARM01
## use the default taveFreq
 layers_taveFreq=0.,
 layers_diagFreq=0.,
 layers_name(1) = 'RHO',
 layers_krho(1) = 1,
 layers_bolus(1) = .TRUE.,
 layers_bounds(1:301,1)=
        27.        ,  27.00333333,  27.00666667,  27.01      ,
        27.01333333,  27.01666667,  27.02      ,  27.02333333,
        27.02666667,  27.03      ,  27.03333333,  27.03666667,
        27.04      ,  27.04333333,  27.04666667,  27.05      ,
        27.05333333,  27.05666667,  27.06      ,  27.06333333,
        27.06666667,  27.07      ,  27.07333333,  27.07666667,
        27.08      ,  27.08333333,  27.08666667,  27.09      ,
        27.09333333,  27.09666667,  27.1       ,  27.10333333,
        27.10666667,  27.11      ,  27.11333333,  27.11666667,
        27.12      ,  27.12333333,  27.12666667,  27.13      ,
        27.13333333,  27.13666667,  27.14      ,  27.14333333,
        27.14666667,  27.15      ,  27.15333333,  27.15666667,
        27.16      ,  27.16333333,  27.16666667,  27.17      ,
        27.17333333,  27.17666667,  27.18      ,  27.18333333,
        27.18666667,  27.19      ,  27.19333333,  27.19666667,
        27.2       ,  27.20333333,  27.20666667,  27.21      ,
        27.21333333,  27.21666667,  27.22      ,  27.22333333,
        27.22666667,  27.23      ,  27.23333333,  27.23666667,
        27.24      ,  27.24333333,  27.24666667,  27.25      ,
        27.25333333,  27.25666667,  27.26      ,  27.26333333,
        27.26666667,  27.27      ,  27.27333333,  27.27666667,
        27.28      ,  27.28333333,  27.28666667,  27.29      ,
        27.29333333,  27.29666667,  27.3       ,  27.30333333,
        27.30666667,  27.31      ,  27.31333333,  27.31666667,
        27.32      ,  27.32333333,  27.32666667,  27.33      ,
        27.33333333,  27.33666667,  27.34      ,  27.34333333,
        27.34666667,  27.35      ,  27.35333333,  27.35666667,
        27.36      ,  27.36333333,  27.36666667,  27.37      ,
        27.37333333,  27.37666667,  27.38      ,  27.38333333,
        27.38666667,  27.39      ,  27.39333333,  27.39666667,
        27.4       ,  27.40333333,  27.40666667,  27.41      ,
        27.41333333,  27.41666667,  27.42      ,  27.42333333,
        27.42666667,  27.43      ,  27.43333333,  27.43666667,
        27.44      ,  27.44333333,  27.44666667,  27.45      ,
        27.45333333,  27.45666667,  27.46      ,  27.46333333,
        27.46666667,  27.47      ,  27.47333333,  27.47666667,
        27.48      ,  27.48333333,  27.48666667,  27.49      ,
        27.49333333,  27.49666667,  27.5       ,  27.50333333,
        27.50666667,  27.51      ,  27.51333333,  27.51666667,
        27.52      ,  27.52333333,  27.52666667,  27.53      ,
        27.53333333,  27.53666667,  27.54      ,  27.54333333,
        27.54666667,  27.55      ,  27.55333333,  27.55666667,
        27.56      ,  27.56333333,  27.56666667,  27.57      ,
        27.57333333,  27.57666667,  27.58      ,  27.58333333,
        27.58666667,  27.59      ,  27.59333333,  27.59666667,
        27.6       ,  27.60333333,  27.60666667,  27.61      ,
        27.61333333,  27.61666667,  27.62      ,  27.62333333,
        27.62666667,  27.63      ,  27.63333333,  27.63666667,
        27.64      ,  27.64333333,  27.64666667,  27.65      ,
        27.65333333,  27.65666667,  27.66      ,  27.66333333,
        27.66666667,  27.67      ,  27.67333333,  27.67666667,
        27.68      ,  27.68333333,  27.68666667,  27.69      ,
        27.69333333,  27.69666667,  27.7       ,  27.70333333,
        27.70666667,  27.71      ,  27.71333333,  27.71666667,
        27.72      ,  27.72333333,  27.72666667,  27.73      ,
        27.73333333,  27.73666667,  27.74      ,  27.74333333,
        27.74666667,  27.75      ,  27.75333333,  27.75666667,
        27.76      ,  27.76333333,  27.76666667,  27.77      ,
        27.77333333,  27.77666667,  27.78      ,  27.78333333,
        27.78666667,  27.79      ,  27.79333333,  27.79666667,
        27.8       ,  27.80333333,  27.80666667,  27.81      ,
        27.81333333,  27.81666667,  27.82      ,  27.82333333,
        27.82666667,  27.83      ,  27.83333333,  27.83666667,
        27.84      ,  27.84333333,  27.84666667,  27.85      ,
        27.85333333,  27.85666667,  27.86      ,  27.86333333,
        27.86666667,  27.87      ,  27.87333333,  27.87666667,
        27.88      ,  27.88333333,  27.88666667,  27.89      ,
        27.89333333,  27.89666667,  27.9       ,  27.90333333,
        27.90666667,  27.91      ,  27.91333333,  27.91666667,
        27.92      ,  27.92333333,  27.92666667,  27.93      ,
        27.93333333,  27.93666667,  27.94      ,  27.94333333,
        27.94666667,  27.95      ,  27.95333333,  27.95666667,
        27.96      ,  27.96333333,  27.96666667,  27.97      ,
        27.97333333,  27.97666667,  27.98      ,  27.98333333,
        27.98666667,  27.99      ,  27.99333333,  27.99666667,  28.        
 layers_name(2) = 'TH',
 layers_bolus(2) = .TRUE.,
 layers_bounds(1:301,2)=
         2.        ,   2.02666667,   2.05333333,   2.08      ,
         2.10666667,   2.13333333,   2.16      ,   2.18666667,
         2.21333333,   2.24      ,   2.26666667,   2.29333333,
         2.32      ,   2.34666667,   2.37333333,   2.4       ,
         2.42666667,   2.45333333,   2.48      ,   2.50666667,
         2.53333333,   2.56      ,   2.58666667,   2.61333333,
         2.64      ,   2.66666667,   2.69333333,   2.72      ,
         2.74666667,   2.77333333,   2.8       ,   2.82666667,
         2.85333333,   2.88      ,   2.90666667,   2.93333333,
         2.96      ,   2.98666667,   3.01333333,   3.04      ,
         3.06666667,   3.09333333,   3.12      ,   3.14666667,
         3.17333333,   3.2       ,   3.22666667,   3.25333333,
         3.28      ,   3.30666667,   3.33333333,   3.36      ,
         3.38666667,   3.41333333,   3.44      ,   3.46666667,
         3.49333333,   3.52      ,   3.54666667,   3.57333333,
         3.6       ,   3.62666667,   3.65333333,   3.68      ,
         3.70666667,   3.73333333,   3.76      ,   3.78666667,
         3.81333333,   3.84      ,   3.86666667,   3.89333333,
         3.92      ,   3.94666667,   3.97333333,   4.        ,
         4.02666667,   4.05333333,   4.08      ,   4.10666667,
         4.13333333,   4.16      ,   4.18666667,   4.21333333,
         4.24      ,   4.26666667,   4.29333333,   4.32      ,
         4.34666667,   4.37333333,   4.4       ,   4.42666667,
         4.45333333,   4.48      ,   4.50666667,   4.53333333,
         4.56      ,   4.58666667,   4.61333333,   4.64      ,
         4.66666667,   4.69333333,   4.72      ,   4.74666667,
         4.77333333,   4.8       ,   4.82666667,   4.85333333,
         4.88      ,   4.90666667,   4.93333333,   4.96      ,
         4.98666667,   5.01333333,   5.04      ,   5.06666667,
         5.09333333,   5.12      ,   5.14666667,   5.17333333,
         5.2       ,   5.22666667,   5.25333333,   5.28      ,
         5.30666667,   5.33333333,   5.36      ,   5.38666667,
         5.41333333,   5.44      ,   5.46666667,   5.49333333,
         5.52      ,   5.54666667,   5.57333333,   5.6       ,
         5.62666667,   5.65333333,   5.68      ,   5.70666667,
         5.73333333,   5.76      ,   5.78666667,   5.81333333,
         5.84      ,   5.86666667,   5.89333333,   5.92      ,
         5.94666667,   5.97333333,   6.        ,   6.02666667,
         6.05333333,   6.08      ,   6.10666667,   6.13333333,
         6.16      ,   6.18666667,   6.21333333,   6.24      ,
         6.26666667,   6.29333333,   6.32      ,   6.34666667,
         6.37333333,   6.4       ,   6.42666667,   6.45333333,
         6.48      ,   6.50666667,   6.53333333,   6.56      ,
         6.58666667,   6.61333333,   6.64      ,   6.66666667,
         6.69333333,   6.72      ,   6.74666667,   6.77333333,
         6.8       ,   6.82666667,   6.85333333,   6.88      ,
         6.90666667,   6.93333333,   6.96      ,   6.98666667,
         7.01333333,   7.04      ,   7.06666667,   7.09333333,
         7.12      ,   7.14666667,   7.17333333,   7.2       ,
         7.22666667,   7.25333333,   7.28      ,   7.30666667,
         7.33333333,   7.36      ,   7.38666667,   7.41333333,
         7.44      ,   7.46666667,   7.49333333,   7.52      ,
         7.54666667,   7.57333333,   7.6       ,   7.62666667,
         7.65333333,   7.68      ,   7.70666667,   7.73333333,
         7.76      ,   7.78666667,   7.81333333,   7.84      ,
         7.86666667,   7.89333333,   7.92      ,   7.94666667,
         7.97333333,   8.        ,   8.02666667,   8.05333333,
         8.08      ,   8.10666667,   8.13333333,   8.16      ,
         8.18666667,   8.21333333,   8.24      ,   8.26666667,
         8.29333333,   8.32      ,   8.34666667,   8.37333333,
         8.4       ,   8.42666667,   8.45333333,   8.48      ,
         8.50666667,   8.53333333,   8.56      ,   8.58666667,
         8.61333333,   8.64      ,   8.66666667,   8.69333333,
         8.72      ,   8.74666667,   8.77333333,   8.8       ,
         8.82666667,   8.85333333,   8.88      ,   8.90666667,
         8.93333333,   8.96      ,   8.98666667,   9.01333333,
         9.04      ,   9.06666667,   9.09333333,   9.12      ,
         9.14666667,   9.17333333,   9.2       ,   9.22666667,
         9.25333333,   9.28      ,   9.30666667,   9.33333333,
         9.36      ,   9.38666667,   9.41333333,   9.44      ,
         9.46666667,   9.49333333,   9.52      ,   9.54666667,
         9.57333333,   9.6       ,   9.62666667,   9.65333333,
         9.68      ,   9.70666667,   9.73333333,   9.76      ,
         9.78666667,   9.81333333,   9.84      ,   9.86666667,
         9.89333333,   9.92      ,   9.94666667,   9.97333333,  10.
 &
